     320
19.639829      0.100716      -0.070113       0.114542      21.618618      0.009348       -0.148453      0.050615      36.880723 
 Cs         3.4599350353        0.4816263010        6.2492954650
 Cs         3.8432781252        0.7112897853       24.1576785774
 Cs         3.6726653673       11.5661608812        6.4711924644
 Cs         3.2999832117       12.0551084930       24.3170373075
 Cs         8.6589283548        0.7688249533        6.6144498734
 Cs         8.6475551188        1.1426687916       23.8092264456
 Cs         8.7520488802       11.5500405941        6.0443702064
 Cs         8.4121210788       12.0347986258       24.0499518756
 Cs        13.1026310361        1.0571042651        5.8893887052
 Cs        13.7085148881        0.8585793010       24.0398196072
 Cs        13.6787904043       11.4274872542        6.1146647430
 Cs        13.4332796011       11.7268088143       24.6005641221
 Cs        18.3262429479        1.5564455945        5.3155406532
 Cs        18.4903746294        0.5331064892       24.7262607119
 Cs        18.6103643021       11.8917688495        6.2426031574
 Cs        18.6905765799       12.3774504100       24.6322304784
 Cs         0.9221688704       10.7698816079       12.5386732518
 Cs         1.7645972752       10.0253470921       31.4284319704
 Cs         1.1326501717       20.7566423826       12.0803225241
 Cs         1.0647168003       20.5368116455       30.5142551430
 Cs         6.0710826269        9.6684316868       11.9867576767
 Cs         6.2783521650        9.7566815983       31.0094588834
 Cs         5.7141068781       21.3742034079       12.5101649818
 Cs         6.3248528063       20.7004502473       30.3865109386
 Cs        10.7233117587       10.0684776149       12.1600366480
 Cs        11.2107752683        9.6208250855       30.7286786488
 Cs        10.6837269174       20.8026244144       12.2487596928
 Cs        10.8021083136       21.2136501607       30.1044315613
 Cs        15.5578328272        9.5010851626       12.6650468005
 Cs        15.8116702217       10.0167253411       31.1088786656
 Cs        15.3287694410       21.0196224014       12.3101127707
 Cs        15.9013165888       20.4934179008       30.7012076385
 Cs         3.7445292211        6.5917896598        3.3188447700
 Cs         3.3115587411        6.8836665308       22.0875035088
 Cs         4.4371493264       17.1290117329        3.2746418415
 Cs         3.6564322045       17.6281820023       21.7653447101
 Cs         9.1747004217        6.1777246463        2.9394984817
 Cs         8.3573883161        6.7211077075       21.4751767017
 Cs         8.6779277765       17.0418643808        3.1194184123
 Cs         8.8012068899       17.5278174189       21.4480653905
 Cs        13.4369791402        5.7898450202        2.8464999381
 Cs        13.4180487112        7.0191266822       21.5689927335
 Cs        13.7323890391       16.8912118453        3.4667729022
 Cs        13.6970717143       17.1666766839       21.9347957154
 Cs        18.8993513873        6.3967784451        2.9293455044
 Cs        18.4382598595        6.0731450857       22.1326340749
 Cs        18.8214062714       16.8818996298        3.1142194295
 Cs        17.9758228378       17.1639520593       21.3976241935
 Cs         0.5646240654        4.9712830096       15.3552233318
 Cs         0.8924166463        3.7496068852       33.0975117989
 Cs         1.1924440307       15.4459323932       15.1655937639
 Cs         1.3918025124       14.9129243432       33.4955160064
 Cs         5.7956313123        4.7148904454       15.6970658061
 Cs         5.6626804885        4.3613790529       32.9184096969
 Cs         6.2527098207       15.8642241738       15.6749456219
 Cs         5.8662929092       15.1695966430       33.3527767976
 Cs        10.9426452522        4.3811182875       15.5216600177
 Cs        10.8519839586        4.3290521887       33.2031400717
 Cs        10.9995652322       15.5497297459       15.3533531348
 Cs        10.8348758601       14.9113480306       33.9890874916
 Cs        16.2680929487        4.8690388476       15.4568464883
 Cs        16.3544448649        5.0212445400       33.9306915386
 Cs        15.9025907497       15.9531063551       15.0388677359
 Cs        15.2537596113       15.0290700376       34.0391575223
 Pb         1.6380978935        1.5039401166        0.7844837407
 Pb         1.0249387564        2.2574647633       19.9468281108
 Pb         1.8715143468       12.5455073002        1.1293695871
 Pb         1.2916113558       13.1964714587       19.5503144665
 Pb         6.6667230012        1.7272864499        0.8186416803
 Pb         5.8417471293        1.8214823705       19.5004891451
 Pb         6.3048930359       12.3189577675        0.8350435210
 Pb         6.1863197103       12.8515290075       19.4929023722
 Pb        11.4061616831        1.6220726372        1.0534475088
 Pb        10.8820162019        2.2538623102       19.6676814275
 Pb        11.4466636130       12.1093232435        1.1375150472
 Pb        10.9634997460       12.6607332048       19.3781557867
 Pb        16.2423236953        1.5763469693        0.6641697114
 Pb        15.5284234668        1.8750696871       19.7289015105
 Pb        16.7364403491       12.5347037173        1.2680592279
 Pb        15.7635401601       12.5891768086       19.7169159414
 Pb         3.2407222675        9.2031264669       17.4469446909
 Pb         4.0196409761        8.8834618615       35.8463858911
 Pb         3.3023498626       20.4028643134       17.3377959974
 Pb         3.7929109772       19.9456151059       35.1913636436
 Pb         8.7133245511        9.2095947780       17.2138327722
 Pb         8.6227327943        8.9959835517       35.5845608693
 Pb         8.6947502789       20.6165534041       17.1849639482
 Pb         8.5978553410       19.8579921003       35.0161475311
 Pb        13.0736685622        9.4459385971       17.2579910830
 Pb        13.7922937705        9.3705228153       35.7777344461
 Pb        13.4292586870       20.2667968965       17.3997835158
 Pb        14.0230765947       19.8039669761       35.7933317530
 Pb        18.3477717292        9.3182448122       17.9525595925
 Pb        18.6976918522        9.0990352394       35.5201534252
 Pb        18.0545536848       20.1969474157       17.6762152079
 Pb        18.4061894631       19.7563345372       35.4504024007
 Pb         1.2856657857        7.1272672628        7.9139824988
 Pb         1.0371278310        7.6550967090       26.6337231912
 Pb         0.7731225391       17.6553269628        8.4671779397
 Pb         1.0636579689       17.6707146851       26.4844822820
 Pb         6.4115089024        6.6521824349        7.7418213096
 Pb         5.9874801524        7.6268569558       26.4044886752
 Pb         5.8744568332       18.2431148029        8.6609886916
 Pb         6.0820707579       17.7734111625       26.2621471921
 Pb        11.0575953184        7.2498804363        8.1221105713
 Pb        10.9442856004        7.3747759677       26.5133741937
 Pb        11.0102123001       17.8399813021        8.4139486335
 Pb        11.0340000580       18.1206670892       26.4752441971
 Pb        15.9547770733        7.3653455690        7.9700722320
 Pb        15.6765370051        7.4138115753       26.3500780991
 Pb        16.0085555554       17.9403990724        8.0362032798
 Pb        15.8595380663       18.0460885126       26.2423844628
 Pb         3.2503544998        3.9933180849       10.3366829247
 Pb         3.8886328183        3.6609424617       28.2392770587
 Pb         3.3046571843       14.4469338074       10.3077441886
 Pb         3.8817966906       14.2693372601       28.5847120941
 Pb         8.4337801081        3.7974003306       10.7131225666
 Pb         8.7701239119        4.1155352771       28.3967194160
 Pb         8.2830406388       14.8504163955       10.9492119503
 Pb         8.7470148641       14.5653631309       29.0929163821
 Pb        13.4229520172        3.5497951403       10.2371359507
 Pb        13.8665477792        3.5304115364       28.5555884856
 Pb        13.4255621821       14.1812870723       10.2049669044
 Pb        13.6469526040       14.4448242900       28.9113236284
 Pb        18.1725081344        3.5960543315        9.9373338946
 Pb        18.5822270330        3.5446014539       28.5577317476
 Pb        18.0079217779       14.2770537747       10.5593308676
 Pb        18.5417343291       14.1760164435       29.1559759917
  I         3.5005832263        3.9189903017       18.6869355657
  I         3.6560161137        3.5731330022       36.6335881768
  I         3.8456287644       14.9637948676       18.7745240951
  I         3.8804579736       14.7249747669       37.3289751667
  I         8.5979279444        3.7502176621       18.6750704642
  I         8.9992695825        3.7743147847       36.6355818333
  I         8.6134398089       15.0236798905       18.5873194505
  I         8.7536283917       14.1294142136       37.1185971743
  I        13.5547135234        4.0507167071       18.1161325273
  I        13.4446036169        3.5963525312       36.8702330140
  I        13.4977261255       14.6502085082       18.2509145433
  I        13.3681595224       14.0241248069       36.9485181194
  I        17.9327622399        3.6846995217       18.6550274863
  I        18.8561272505        3.5647796681       36.5064174752
  I        18.1992631377       14.8031126367       18.0770344356
  I        18.7786223351       14.1603234333       36.6281257496
  I         1.7399617775        6.9402789247       -0.2812112948
  I         0.7188907112        7.2614999278       18.9329991534
  I         1.6582591378       17.9892353680       -0.4810577979
  I         1.0230531246       18.1723454431       18.5111772521
  I         6.6135431369        6.8674648333       -0.2967578054
  I         5.7737439621        7.1161884060       18.8168153233
  I         6.0529160072       17.5592917350       -0.1932276112
  I         6.2060057540       18.6196454974       18.3299378726
  I        11.4969949129        7.6145542328       -0.1000221904
  I        10.8711822898        7.1077392558       18.3745191290
  I        11.4344195998       17.8889637900        0.3277334987
  I        11.1748131377       17.9704967566       18.5222799183
  I        16.6418959244        7.4282090616       -0.2949614159
  I        15.6460554799        7.6072780233       18.0839540450
  I        15.9824063665       17.4764461738        0.0677944407
  I        15.7203050447       18.4339448467       18.4558461800
  I         3.8507954064        8.8320353134        9.0748554168
  I         3.9206876931        9.2560791840       27.9501167418
  I         3.5875062071       20.0434824545        9.4529369291
  I         3.8173483347       19.5827012348       27.6144124522
  I         8.4593972422        8.8865502050        8.9443696420
  I         8.6199738843        9.3356753276       27.9839928801
  I         7.9987697901       20.1663657142        9.7442830070
  I         8.2681337506       20.0122727907       27.4775012620
  I        13.4228088061        9.2673285665        9.0796290347
  I        13.5151545541        9.4233549491       27.9451773428
  I        13.4630287456       20.3310884804        8.8585944157
  I        13.4552091666       19.8449244094       27.3380598441
  I        18.4051612442        9.2192763268        9.0767083111
  I        18.0269799320        9.3666830125       28.0353844773
  I        18.2150079880       19.6449297384        9.4755826912
  I        18.3206124354       19.6437638853       27.4966009211
  I         1.2660783493        1.7766708292        8.9405447853
  I         1.2788714782        1.5887676948       27.4916763525
  I         0.9087730533       12.3065285577        8.9928559196
  I         1.4126106123       12.1361743541       28.1681628778
  I         6.2590562747        2.1940081037        9.3451178882
  I         6.3344677379        2.2283618503       26.9866992705
  I         6.2326440307       12.7017473064        9.6761198817
  I         5.9314562023       12.5210970080       27.0195579943
  I        10.7527052239        1.9417193388        9.7928427826
  I        11.2012323969        2.3070172959       27.0696985538
  I        10.6820425399       12.2250376181        9.4136288492
  I        11.0416766762       12.7421956840       27.4222203360
  I        15.8857044685        1.5143092428        9.1102171185
  I        15.9611832424        1.8038667938       27.1630961813
  I        15.8864941984       12.0450845552        9.5967197736
  I        15.9205049655       12.4553616866       27.8194155370
  I         0.6821907819        0.7411926940       17.0600026487
  I         0.7391888887       -0.0684775244       34.3681313576
  I         1.0593087763       11.5050535848       16.5293759077
  I         1.6799381430       11.1384669767       35.1104044758
  I         5.5210328007        0.9056443814       16.4995624236
  I         6.6544157806        0.4774121480       34.5152173850
  I         5.8686488331       11.1487520379       16.5431602238
  I         5.6540404701       11.5223194956       34.6971170879
  I        11.1336904064        0.9471895129       16.6748445519
  I        11.1548421490        0.0251388130       34.8371633282
  I        10.7452371972       11.6220221257       16.4224403187
  I        11.2766146907       11.1358177219       34.4820203993
  I        15.5811379153        0.5916572790       16.2449157413
  I        16.1183090376        0.3755069022       34.5099676391
  I        15.7852327560       11.4207092980       16.4585943218
  I        16.1532470483       11.3933309307       34.6680177123
  I         3.9224402353       10.1367582440        2.1385740122
  I         3.5018027366       11.0853850341       20.3675032827
  I         4.4209185933       21.1116996524        1.5886534530
  I         3.5701416695       21.7458804708       20.4763349956
  I         8.6834976841       10.2922499883        1.5826383324
  I         8.2926506722       10.8246537007       20.4290767612
  I         8.8743198301       21.1307659641        1.4863967448
  I         9.0016562040       21.6403679522       20.3564902128
  I        13.9490249810       10.1054930400        1.9947796643
  I        13.2543113525       10.7956773213       20.7393951789
  I        13.7799768414       21.0036031612        1.9486823942
  I        13.2904171327       21.3862629651       20.2646626060
  I        18.8709666419       10.3487849309        1.9030406096
  I        18.2318127322       10.8622979500       20.8444518811
  I        18.8593345182       21.0304558324        2.2102312102
  I        18.2884024104       21.7701766205       20.6406198582
  I         0.9780371939        6.0291062482       11.0951893965
  I         1.0985464518        5.6598890898       29.3650506925
  I         1.0693689284       16.5354948020       11.3178842379
  I         1.2449345634       16.1776531305       29.5350860089
  I         5.8585146338        5.8895375994       11.1871397873
  I         6.1858867721        5.5735634820       29.4640160416
  I         5.9840592263       16.9956581106       12.1960972754
  I         6.2141245522       16.3774501437       29.3977366504
  I        11.0560186906        5.8563417380       11.0757893091
  I        11.2419723960        5.8370652867       29.8118205808
  I        10.8557613521       16.7838404458       11.4134863790
  I        11.2279276421       16.8167817662       29.8438766383
  I        15.6859863798        5.8690470101       11.0650272902
  I        15.9767889326        5.6454619997       29.5776314805
  I        15.8161452179       16.5807879839       11.3997639755
  I        15.9657481939       16.4038872234       29.6785216222
  I         4.1857330786        4.9214881136        6.6383434816
  I         3.9440263348        5.4596223336       25.5132930170
  I         3.3149061392       15.8267531972        7.4920037947
  I         3.3544943827       16.0292430128       25.1029163368
  I         9.0903861625        4.9394759334        7.5494019056
  I         8.3240496791        5.6644068661       25.2624385347
  I         9.0708030683       15.8208197102        7.3740130830
  I         8.9286063134       16.1734340286       25.3099948133
  I        13.0797431301        4.8967205396        7.2798397939
  I        13.3756772716        5.8275153597       25.3420322725
  I        13.3672820663       15.7357462563        7.2804350270
  I        13.3492598333       15.9202010141       25.3982443231
  I        18.2916173136        5.1138774818        7.0885610345
  I        18.5636429573        5.4298117993       25.8541235974
  I        18.1512921968       15.5106191682        7.3624580064
  I        18.4087592128       15.8307193721       25.7949092376
  I         1.6847129897        3.0407561842        3.7145920684
  I         1.1868789449        2.8511536163       22.9221045927
  I         1.5422672920       13.4928613622        4.0309787593
  I         1.1084797955       14.1099449148       22.3462169591
  I         6.8832565168        3.1763044124        3.4987796854
  I         6.0953191857        3.3867080910       22.4585576703
  I         5.8885181720       13.7998290844        4.2948656859
  I         6.1786884270       14.0160657024       22.3429017129
  I        10.8889883823        3.3641008245        3.7726063312
  I        11.0423540963        3.5619629372       22.5042667021
  I        11.6379024035       13.6530564224        3.8236758971
  I        10.9743399309       14.1857282456       21.8851567401
  I        16.4584317652        3.4413163351        3.2494543909
  I        15.5244485327        3.9086645453       22.3454357453
  I        16.1012618857       13.4404306610        4.0297362487
  I        15.8466988858       13.7572122439       22.6708758523
  I         3.3180296115        8.1063231318       14.6435699865
  I         3.7073786529        7.4825989479       32.9357393862
  I         3.3933424932       18.5407409769       14.7323973484
  I         3.6413057253       18.3444494158       32.4921498156
  I         8.2289773968        7.7067076789       14.5337361097
  I         8.5073777899        8.0385557453       32.6105515402
  I         8.7478926162       18.8360644018       14.5326784374
  I         8.4382118550       18.3558094478       32.4728535236
  I        12.8094199159        8.0624058790       14.4863739711
  I        13.6756551181        7.5234071744       33.1104742491
  I        13.4675633484       18.8708073636       14.7189540589
  I        13.5010633594       18.3652719432       32.8366144322
  I        18.3210400734        8.2313020641       14.9159424493
  I        18.6156444360        7.8602643405       32.4722696902
  I        18.5113285235       18.5737999881       14.9246347063
  I        17.7962605165       18.0929059758       33.0468912610
  I         0.9255964199        8.4582517195        5.0502180034
  I         0.6191255653        8.9314024659       23.8025804968
  I         0.4336664076       19.7792999729        6.0957613758
  I         1.2067724465       19.3186080345       23.7625322836
  I         6.5824128558        8.2498730596        5.1137900188
  I         5.4463311354        9.1697832850       23.8400862596
  I         6.3645665703       19.0148245611        5.7568458509
  I         6.4830825519       19.3825390280       23.6965968083
  I        11.1018094081        8.5921399140        5.1089922507
  I        10.6667202013        8.9783818855       23.9262159084
  I        10.9453085752       19.1971439399        5.5757199414
  I        11.3311760385       19.6223118006       23.7999169581
  I        16.2588425787        8.3406185880        4.8297820335
  I        15.7955947356        9.1132710088       23.9550670461
  I        16.0870369303       19.3819551571        5.2997049315
  I        16.4271839835       19.4035992859       23.5423909234
  I         3.3430805257        3.0898588088       13.3432504369
  I         3.3236803362        2.0118093668       31.0441789226
  I         3.5894493531       13.2162584220       13.1130482858
  I         4.0018625344       13.0645000756       31.2574566360
  I         8.3393355130        2.3241730838       13.5501844839
  I         8.5840147743        2.3825950035       30.8641235939
  I         8.0947890135       13.1941042817       13.4119130870
  I         8.9727368084       12.8642916618       31.5870239802
  I        13.2911701464        2.3414771757       13.2287207706
  I        13.5023646095        1.8528148205       31.3058317680
  I        13.6336324532       12.8962597667       13.2842803899
  I        13.4074699831       13.0478284170       31.5681257970
  I        18.2245609309        2.8296077808       13.1424362438
  I        18.0909903554        1.7594432224       31.1346685793
  I        18.1251149184       13.3399400430       13.3708208638
  I        18.1149654185       12.9136250759       31.7253698413
