     320
17.404925      0.100361      -0.034949      0.093806      30.420301      -1.094589      -0.030570      -1.211690      31.444767 
 Cs         5.0204301370        1.8385269536        1.9611231113
 Cs         4.6131329391        2.8426480421        9.6758189407
 Cs         4.8762440268        1.9783167469       16.8539117455
 Cs         5.6489550014        1.5464698552       26.3694006035
 Cs         3.5867554539       17.4522809128        1.8686413006
 Cs         4.5439175985       17.0656248521        9.6108656120
 Cs         4.2445812636       16.7134087158       16.9526609478
 Cs         3.9737136652       17.3153404316       25.2469550668
 Cs        13.7096332817        2.5305179137        1.9431336210
 Cs        13.1595969048        2.2299032619       10.3358271450
 Cs        12.6759027757        1.8647942823       18.0853814598
 Cs        13.3522523133        2.0588045409       25.3510185446
 Cs        12.3771068908       18.5349226580        0.9027830586
 Cs        13.0612649050       17.3075093775        9.4009267538
 Cs        13.2796498797       16.9828793743       17.1375232000
 Cs        12.5492664295       16.2381263102       25.1046744516
 Cs         0.2764100400        9.9844499111        2.1711722040
 Cs         0.0024303545        9.5010201627        9.0413072145
 Cs         0.2346255015        9.9632708189       16.6507109655
 Cs         0.2778544840        9.2126850607       25.8817431191
 Cs         0.4185890704       25.1028345453        2.3310046434
 Cs         1.2328781342       25.2547364716        9.3493680049
 Cs        -0.5942751244       24.9676546748       16.6008340182
 Cs        -0.7825437484       23.8976347385       23.6641942124
 Cs         8.7701533556        9.9670556500        1.5841444098
 Cs         8.2494098443       10.0384952935        8.8131195716
 Cs         9.0885844289        9.7111985310       16.6479776737
 Cs         8.9352902338        8.8198277940       25.5195112995
 Cs         8.9704422767       24.9506487399        1.3418690576
 Cs         9.6580651812       25.3966170250        8.9546362819
 Cs         8.7336678713       24.3870834046       17.1189835087
 Cs         8.2153982416       23.7590674140       25.1590374098
 Cs        -0.2718170268        5.6141609710        6.0573440533
 Cs         0.0496067502        5.3518684810       14.2438174667
 Cs         0.2741250120        4.1183300415       22.2166984555
 Cs         0.2327609549        4.0627020909       28.8775851482
 Cs        -0.3230940825       20.4060946888        4.6911738345
 Cs         0.8948141173       19.6823801190       12.3881725362
 Cs        -0.6390290697       18.7870557901       21.1427890261
 Cs        -0.4980678803       18.4734923347       28.5022107477
 Cs         8.9591081885        5.1540455870        5.1492170328
 Cs         8.9290509076        5.0185426113       13.3705923446
 Cs         8.7855425777        4.2731287400       21.2912505124
 Cs         8.0743726699        3.6789852825       30.3741083073
 Cs         9.2172783528       20.1823197946        4.7348106248
 Cs         8.9882610892       19.4122839590       12.7986631779
 Cs         7.6656965283       18.6541326022       20.3864872108
 Cs         7.5329742461       19.5879997377       28.9011468257
 Cs         3.7502912449       12.4203713688        5.7560573855
 Cs         4.4180795160       12.2706010498       13.3213126786
 Cs         3.9507799023       11.7224348686       20.6985001339
 Cs         4.0774281422       11.7556901376       28.3791585554
 Cs         4.8850208939       28.2168210275        5.6065289352
 Cs         5.1183394405       27.2741097705       12.8721761635
 Cs         4.5345625163       26.9967909808       20.7874551039
 Cs         4.3056195875       26.3659538287       28.4368589873
 Cs        12.2205935958       12.8917876373        3.8948474186
 Cs        13.0224223674       12.1120766684       13.0002766962
 Cs        12.6616959700       11.6215526625       21.5969067632
 Cs        12.3774465738       11.9130462247       28.7729892478
 Cs        13.4285195889       28.3967788827        5.0803521571
 Cs        13.3912421096       27.2812088278       12.6800772067
 Cs        13.2822904935       27.1075268448       20.9527824065
 Cs        14.3442566841       26.9425986380       29.7074474266
 Pb         0.4909815496        0.4866827511        4.7566835323
 Pb         0.2811555479       -0.1201934201       12.2877120972
 Pb        -0.3125195841       -0.4036482130       19.8181383578
 Pb         1.0566677586       -0.9976022490       27.6981851516
 Pb        -0.6386996747       15.2384486611        2.9551828569
 Pb        -0.0828197542       14.6342313568       10.7995546788
 Pb        -0.3681378353       14.3569409584       19.1820527624
 Pb        -0.6322928203       14.0064467383       26.6424423395
 Pb         8.8057096009       -0.2457479695        4.0302820897
 Pb         8.8858488311       -0.0903660574       11.8874737265
 Pb         9.1024336263       -0.9750064480       19.7736349605
 Pb         9.8652750389       -1.5071645585       27.7283551365
 Pb         7.7199760560       15.0769976898        2.9725469855
 Pb         9.0019602740       15.0821011161       10.5200197701
 Pb         8.4686938401       14.1792753495       18.7419566940
 Pb         7.9289740987       13.7240246859       26.1816293759
 Pb         3.6944591428        7.6475947982        3.5562139855
 Pb         4.2765038694        7.3130170460       11.1775558083
 Pb         5.1059529149        6.8824059530       19.7941038659
 Pb         4.7739988256        6.5620791369       27.3105568227
 Pb         5.1294497176       22.7888757364        3.8274005470
 Pb         4.9887677225       22.6293266667       11.4417328652
 Pb         3.7824720717       21.9498763789       18.8880546919
 Pb         3.4830992986       21.5832872479       27.2791038437
 Pb        12.7319094624        7.5984404246        3.2441585512
 Pb        13.2763500109        7.6583261056       11.1486329457
 Pb        13.9343845990        6.8202549549       19.6076715173
 Pb        12.9012876804        6.3154052871       27.0226566309
 Pb        13.6623014325       23.1506535811        2.7104780079
 Pb        13.4279307982       22.5029614425       10.5398730731
 Pb        12.2858485496       22.3519148803       18.4707182157
 Pb        12.4223419816       21.5452851574       26.7857493589
 Pb         4.1526791296        8.0091173298        7.4454512336
 Pb         5.2777426769        7.5422735078       15.8744500359
 Pb         4.9737870787        6.5918401779       23.7156455685
 Pb         4.0411903520        6.7380467023       31.2692199870
 Pb         5.4586734386       22.6032399312        7.7079777104
 Pb         4.7288676017       22.3988047125       15.2412642950
 Pb         3.4568561592       21.7067310980       22.9003594475
 Pb         4.2934834220       21.6717800929       31.2853901157
 Pb        12.4645793337        7.7704830320        7.3319221914
 Pb        13.2500992245        7.2760053594       15.0738268092
 Pb        13.3297799133        6.9263675502       23.4760589191
 Pb        12.9214761482        6.6272412846       30.7739485422
 Pb        13.5643949888       22.3282545923        6.7702477687
 Pb        13.0761235956       22.4209163426       14.6465896003
 Pb        12.0133217525       21.4731576592       22.6705604079
 Pb        13.1262192293       21.5750242631       30.2285186394
 Pb         8.5788596228       14.7657083762        6.7305890708
 Pb         8.9316117281       14.6812470583       14.7675051348
 Pb         7.8416813432       13.5294673361       22.5010768149
 Pb         7.8015189497       13.9142937952       30.3798291942
 Pb         8.6415353800       30.0915911181        6.8275458971
 Pb         8.8036084911       29.9958474027       14.7549917088
 Pb         9.5698139589       29.4742498680       22.5068352126
 Pb         9.3111694756       28.9291728048       30.5658128873
 Pb        16.8138064182       14.9735256792        7.0053021660
 Pb        17.3335347124       14.7245838006       14.7202477762
 Pb        17.0935843539       14.2026062848       23.1090965988
 Pb        16.4893747321       14.0975427980       30.5646095655
 Pb        17.8891086820       30.5512105027        7.4605498875
 Pb        17.3816386178       29.7313550699       14.8295989922
 Pb        17.9706291813       30.0812834568       22.7214704068
 Pb        18.2454037400       29.2578102868       30.7118604238
  I         2.7402792435        1.3828230593        6.7987684285
  I         2.5297151288        0.8832090669       14.4243027154
  I         2.3360838820        0.7135429227       21.6847945744
  I         3.1002598383        0.1997843753       30.0979047040
  I         1.8320416217       15.8649602169        4.7397339516
  I         2.4501112952       16.3559281077       12.7105215774
  I         1.9268614367       15.4909105229       21.1755498098
  I         1.1446687600       15.2945672508       28.7258653625
  I        11.2064252392        1.0059977706        6.0974371408
  I        10.8147952461        1.4340680919       13.5823457783
  I        11.3934241180        1.0630885840       21.4146666413
  I        11.7394685309        0.1344353693       29.6357050961
  I         9.9144050134       16.4006406787        4.3458910161
  I        11.1890194847       16.1504409380       12.4612751177
  I        10.3063626580       15.2805947942       20.8469821981
  I        10.3072758558       15.0977489436       27.9297412838
  I         6.1062666932        8.8205679652        5.2833979400
  I         6.8673760685        9.1043724297       13.3333387235
  I         7.0423616428        8.2947717209       22.0832629384
  I         6.5448904114        7.5579022752       29.9269457478
  I         7.1620672835       24.5232074777        5.6316036849
  I         7.4013326614       23.0840971824       13.5851475471
  I         5.6981335474       23.5449207427       21.4599614997
  I         6.0515990667       22.9865936141       28.7237015079
  I        14.6869626328        9.2556198491        5.4221548800
  I        15.6189539571        8.8222836339       13.2001844711
  I        16.0600071338        7.8489060342       21.7622048323
  I        15.4130071790        7.6554923238       28.9096383376
  I        15.9715796130       23.9996743162        5.3869705441
  I        15.7268207514       23.7421597821       12.9975049312
  I        14.0396371547       23.3277860887       21.1089668743
  I        14.9187724555       23.0690461576       27.7143913377
  I         1.4640314570        6.5675927408        1.5943721464
  I         2.1314092124        5.7821899107        9.7319569776
  I         3.1588760285        5.7598471006       17.6034480946
  I         2.2316483172        5.7076254991       25.4315156620
  I         2.5559012952       21.4608975678        2.3298172191
  I         3.0518775260       21.0408140893        9.3833244101
  I         2.4705147567       20.4650711929       16.7027993148
  I         1.0594825695       20.4736555958       24.8242004672
  I        10.4011461357        6.2812883902        1.6252220839
  I        10.6027388814        6.3578987090        9.5131787366
  I        11.6428897738        5.8210729652       17.3798051466
  I        11.2210495451        4.9829983432       24.7649337590
  I        11.2031781150       22.0243266392        1.2817749950
  I        11.1896200787       20.7644720394        8.4477401299
  I        10.7412191868       20.7991897212       16.3676585069
  I        10.0970494953       20.2910116213       25.0904116785
  I         5.2188132998       14.5395671525        0.5290296001
  I         6.5011318411       13.7895876508        9.0894154956
  I         6.5555699077       13.1975078227       16.2298116121
  I         5.4587844067       12.2694901262       24.2718695236
  I         6.6612255526       28.6502265641        0.1934415425
  I         6.3892537403       29.3432108074        9.0297365199
  I         6.4669568298       28.2376900210       16.2035558091
  I         7.7380535398       27.5961965904       24.5915504381
  I        13.8672498817       14.8916952057        0.7808826324
  I        15.1230297203       13.1939216069        8.9976003911
  I        15.5664098231       13.2909192007       16.9164510340
  I        14.5861079283       12.6332176130       24.8614172464
  I        15.7549898890       29.6242013954        1.5506747553
  I        15.4389266852       29.3711431258        9.0741871185
  I        15.1775039510       28.2746063932       16.8336311355
  I        16.4772687787       28.0599599409       24.8704354503
  I         6.6508516189        1.1947104147        6.1010292476
  I         6.6964146573        1.1279163384       14.1227499249
  I         6.9454331892        0.2103135832       22.1274122795
  I         7.0870283422       -0.4056530548       29.4229375482
  I         5.6155767535       15.8265718038        5.3911228710
  I         6.8828369352       16.3204042705       12.8447373051
  I         5.7714277930       15.0340771669       20.6781264216
  I         5.4476716487       15.0165220307       27.9054875095
  I        15.4256204686        1.3154738228        6.0198361407
  I        14.9869670867        0.5544261129       13.7260323494
  I        15.1596483282        0.3475873656       22.6628539721
  I        16.1551014790        0.2021680178       29.8190019244
  I        14.7572374116       16.5779208352        5.2990377787
  I        14.7771029818       15.7686207695       13.1216986963
  I        14.5702869084       15.3421880826       21.2258693952
  I        14.4914305346       14.9819180765       28.4364605405
  I         1.5388805483        9.0555830960        5.5532145788
  I         2.6177240906        8.8242446250       13.8732901232
  I         2.6156289996        7.9086653731       21.3540226396
  I         2.4501260231        8.1184099889       29.1419015094
  I         2.6514157257       24.0234419922        5.9531851229
  I         2.8730421911       23.9903968130       13.2435189557
  I         1.3933455405       22.8565855401       20.8096156033
  I         1.4869404486       22.2672211390       29.6841247437
  I        10.3266489688        8.6196063441        5.2333965938
  I        11.1679051391        8.7440455336       13.3525349243
  I        11.1917277926        7.6906301718       21.3985698187
  I        10.5093849813        7.7040627463       29.0808268817
  I        11.3358122267       24.0844177972        4.8019647580
  I        11.0804279756       23.8864547507       11.9611522986
  I         9.7385305903       22.3961709076       20.4511964435
  I         9.9783919169       22.0058482785       28.6626355912
  I         6.3902500733        6.1731392982        2.0921390996
  I         6.3259044177        6.2460362304        9.0576786058
  I         7.4924290592        6.1416029373       17.3655345464
  I         6.9943503691        4.9130639270       26.1183505363
  I         7.1169898547       21.3463168923        1.6238393933
  I         7.5256917961       21.5040426341        9.3663372412
  I         6.7011497873       20.9407241628       17.1819966034
  I         5.8603882282       20.4262378406       25.1862334813
  I        14.9986924092        6.0135651035        1.1569633948
  I        15.3617424717        6.4265087961        8.9730470845
  I        16.0534673635        6.0359459978       17.3712372051
  I        15.6499710623        5.5339287571       25.4343022689
  I        15.8438469201       21.9490428984        0.2803587998
  I        15.8395761672       21.1383712596        8.4202881205
  I        15.0259082736       21.5717511351       17.0793197015
  I        14.2133763024       19.8607517969       24.3919033668
  I         1.1967582056       13.4352076787        1.1311769030
  I         2.1032209479       13.5271171815        8.8845274230
  I         2.4607587164       12.9049304979       16.8807463559
  I         1.7432626986       12.5816007830       25.1923159432
  I         2.6958783684       28.7920967175        1.6888975682
  I         2.7631040030       29.0192328362        9.0946646027
  I         2.0619327738       28.6487994125       16.9509613975
  I         3.7638999588       28.2807920680       24.6517913825
  I         9.9052282197       13.7264566675        0.7738887432
  I        11.3426256488       14.0413082352        8.2192950270
  I        10.9497085729       13.0946405588       16.8142033117
  I        10.2685264701       12.2583644220       24.2762701970
  I        11.6128338223       28.8361085996        1.0907040357
  I        11.1622709782       28.8366275006        8.7637815561
  I        10.8811764439       28.1549990134       16.3236243405
  I        12.3754145655       28.5760010147       24.3567991696
  I         3.9663266096        5.0936708344        5.2758699516
  I         4.8114035912        5.0999479679       13.3814991107
  I         5.1069120066        4.1035579075       21.9643038297
  I         4.1857975231        3.8640626091       28.8898010386
  I         5.0554270348       20.0272611785        5.4385661630
  I         4.7817923824       19.7445911405       13.2302535836
  I         3.7878793708       19.1267556098       20.8017399226
  I         4.1597107323       18.9436348975       29.1039903756
  I        12.8337700918        5.3598812212        5.3428102138
  I        13.2064236718        4.6796940039       13.2692466817
  I        13.9846884520        4.2375021247       21.0874160201
  I        12.9869960261        3.7699738405       29.3331480844
  I        13.0980228126       20.2531625676        4.0526230387
  I        12.9998089885       20.0593393574       12.6366998402
  I        12.9314701520       19.5662357243       20.2606036507
  I        12.5758086974       18.8383500973       29.0252921861
  I        -1.2936409446       12.6841907966        4.9344120115
  I         0.5254919190       12.1929009697       12.6950142009
  I        -0.1736209307       11.5386889926       20.7052597250
  I        -0.0765381603       11.3352373291       29.0631981485
  I         0.2122334371       27.9808720972        5.4374564209
  I         1.0394383176       27.5736754606       12.6672702584
  I         0.4388284195       27.4468656175       20.7237494146
  I         0.7826915370       26.7377166358       28.5879948221
  I         8.1621517151       12.3818840087        4.4638906385
  I         8.9263181975       12.4499284763       12.3143072193
  I         8.7657842255       11.2888896193       20.1744992651
  I         7.7661429822       11.3148758884       28.4717646621
  I         9.0861278895       27.7977623542        4.7954468360
  I         9.3260963736       27.3247597039       12.2371358109
  I         9.9968908043       26.7625970309       19.8333188944
  I        10.0546576617       26.6051326146       28.5750666391
  I         8.7694664118        2.4946972894        2.4969878880
  I         9.2193700642        2.4535872232        9.9552558194
  I         8.9724589452        1.6019713788       17.8285670503
  I         9.3360302352        1.4982869915       25.6251250235
  I         8.0978489428       17.6356213254        1.1869018936
  I         8.7129145018       17.5548725344        8.3182499293
  I         8.4807804523       17.1800705581       16.8368855515
  I         8.0324527774       16.1978973073       24.1421990429
  I        18.0041328194        3.0188217549        2.9092814437
  I        17.5098513007        2.6855311042       10.5688517889
  I        16.6134396340        2.0641117738       18.1046967515
  I        17.3560958065        1.9353673343       26.0826259729
  I        16.4507432204       18.0368864480        0.8337252237
  I        17.1022431747       17.4557159101        9.1524469941
  I        17.0112932946       17.2269340160       17.1327717688
  I        17.2497930799       16.6703118367       24.7088394260
  I         4.2850456959       10.3089438938        1.7894896386
  I         4.2560552239       10.3781175385        9.2705736969
  I         5.2765790372        9.5786092394       17.9745867340
  I         5.0715621261        9.1092046808       25.8900531323
  I         4.7545335139       25.3195015047        1.7805364784
  I         4.9509228368       25.2386989477        9.6288895794
  I         3.7982752641       24.7618942910       17.3383088612
  I         3.6097271436       24.0231555546       25.1346387032
  I        13.2966118919       10.5245045128        1.3581067746
  I        13.1517139309       10.1597735246        9.5745398131
  I        13.0714648324        9.5383914189       17.5785783328
  I        12.4907543790        9.2693925831       25.7037464757
  I        12.9718320395       25.3112124987        0.5868484063
  I        13.6031436478       24.7858516458        8.6094455476
  I        12.5587864688       24.9008969909       16.4243021355
  I        12.0531463394       23.8286888657       24.7272875252
